20

Si        -1.59207        1.62118        1.58021
Si        -1.59237        1.59808       -1.60299
Si         1.59113        1.62398        1.58001
Si        -1.58927       -1.56192        1.60331
Si         1.59093        1.60088       -1.60309
Si        -1.58947       -1.58502       -1.57989
Si         1.59383       -1.55912        1.60321
Si         1.59373       -1.58232       -1.57979
O         -1.92877        1.95298       -0.01379
O         -0.00067        1.96108        1.92121
O         -1.93437        0.03178        1.92781
O         -0.00097        1.93338       -1.94879
O         -1.93457        0.00378       -1.92759
O          1.92713        1.95618       -0.01399
O          1.93593        0.03518        1.92791
O          0.00253       -1.89452        1.94931
O         -1.92507       -1.91742        0.01421
O          1.93593        0.00718       -1.92759
O          0.00243       -1.92202       -1.92129
O          1.93003       -1.91422        0.01411
